Version 4
SHEET 1 1316 920
WIRE -1200 -320 -1824 -320
WIRE -848 -320 -1200 -320
WIRE 1008 -320 -848 -320
WIRE 1312 -320 1008 -320
WIRE 848 -96 848 -176
WIRE -1040 -64 -1264 -64
WIRE -1392 0 -1504 0
WIRE -1296 0 -1392 0
WIRE 1008 32 1008 -320
WIRE 976 48 912 48
WIRE -1200 64 -1200 -320
WIRE 1120 64 1040 64
WIRE 1216 64 1120 64
WIRE -1504 80 -1504 0
WIRE -1264 80 -1264 -64
WIRE -1232 80 -1264 80
WIRE 560 80 48 80
WIRE 848 80 848 -16
WIRE 848 80 640 80
WIRE 976 80 848 80
WIRE -1136 96 -1168 96
WIRE -1040 96 -1040 -64
WIRE -1040 96 -1072 96
WIRE -1296 112 -1296 0
WIRE -1232 112 -1296 112
WIRE -1040 176 -1040 96
WIRE 400 176 -1040 176
WIRE -1200 208 -1200 128
WIRE -1200 208 -1552 208
WIRE -848 256 -848 -320
WIRE -848 256 -1184 256
WIRE -1392 320 -1392 0
WIRE -1344 320 -1392 320
WIRE -1248 320 -1264 320
WIRE -1152 320 -1248 320
WIRE -1040 320 -1040 176
WIRE -1040 320 -1072 320
WIRE 400 368 400 176
WIRE 736 368 400 368
WIRE 912 368 912 48
WIRE 912 368 816 368
WIRE 1040 368 912 368
WIRE 1120 368 1120 64
WIRE -1184 400 -1184 256
WIRE 48 400 48 80
WIRE -1824 416 -1824 -240
WIRE -1824 416 -2032 416
WIRE -1248 416 -1248 320
WIRE -1216 416 -1248 416
WIRE -1104 432 -1152 432
WIRE -1040 432 -1040 320
WIRE -1216 448 -1280 448
WIRE -1552 592 -1552 208
WIRE -1552 592 -1824 592
WIRE -1184 592 -1184 464
WIRE -1184 592 -1552 592
WIRE 1008 592 1008 96
WIRE 1008 592 -1184 592
WIRE 1312 592 1008 592
WIRE -1504 720 -1504 160
WIRE -1504 720 -1808 720
WIRE -1280 720 -1280 448
WIRE -1280 720 -1504 720
WIRE 48 720 48 480
WIRE 48 720 -1280 720
WIRE 432 720 48 720
WIRE 1312 720 432 720
WIRE -2032 736 -2032 416
WIRE -1824 736 -1824 672
WIRE -1824 736 -2032 736
WIRE -1808 736 -1808 720
WIRE -1808 736 -1824 736
WIRE 432 880 432 720
FLAG 432 880 0
FLAG 848 -176 0
DATAFLAG -1504 16 ""
DATAFLAG 784 80 ""
DATAFLAG 1184 64 ""
DATAFLAG 848 368 ""
DATAFLAG -1376 320 ""
DATAFLAG -1216 320 ""
DATAFLAG -912 176 ""
SYMBOL res 656 64 R90
WINDOW 0 0 56 VBottom 2
WINDOW 3 32 56 VTop 2
SYMATTR InstName R3
SYMATTR Value 1000
SYMBOL res 864 0 R180
WINDOW 0 36 76 Left 2
WINDOW 3 36 40 Left 2
SYMATTR InstName R4
SYMATTR Value 1000
SYMBOL res 720 384 R270
WINDOW 0 32 56 VTop 2
WINDOW 3 0 56 VBottom 2
SYMATTR InstName R5
SYMATTR Value 1000
SYMBOL res 1024 384 R270
WINDOW 0 32 56 VTop 2
WINDOW 3 0 56 VBottom 2
SYMATTR InstName R6
SYMATTR Value 1000
SYMBOL voltage 48 384 R0
WINDOW 123 0 0 Left 0
WINDOW 39 0 0 Left 0
SYMATTR InstName Vref
SYMATTR Value 5
SYMBOL res -1248 304 R90
WINDOW 0 0 56 VBottom 2
WINDOW 3 32 56 VTop 2
SYMATTR InstName R9
SYMATTR Value 10
SYMBOL res -1056 304 R90
WINDOW 0 0 56 VBottom 2
WINDOW 3 32 56 VTop 2
SYMATTR InstName R10
SYMATTR Value 10
SYMBOL diode -1136 112 R270
WINDOW 0 32 32 VTop 2
WINDOW 3 0 32 VBottom 2
SYMATTR InstName D1
SYMBOL diode -1104 448 R270
WINDOW 0 32 32 VTop 2
WINDOW 3 0 32 VBottom 2
SYMATTR InstName D2
SYMBOL voltage -1504 64 R0
WINDOW 123 0 0 Left 0
WINDOW 39 0 0 Left 0
SYMATTR InstName V4
SYMATTR Value 1
SYMBOL voltage -1824 -336 R0
WINDOW 123 0 0 Left 0
WINDOW 39 0 0 Left 0
SYMATTR InstName V1
SYMATTR Value 12
SYMBOL voltage -1824 576 R0
WINDOW 123 0 0 Left 0
WINDOW 39 0 0 Left 0
SYMATTR InstName V2
SYMATTR Value -12
SYMBOL UniversalOpamp2 -1184 432 R0
SYMATTR InstName U1
SYMBOL UniversalOpamp2 -1200 96 R0
SYMATTR InstName U2
SYMBOL UniversalOpamp2 1008 64 R0
SYMATTR InstName U3
TEXT -608 904 Left 2 !.tran 0 10 0
